#!/bin/bash

# bash_profile

# set 256 color profile where possible
if [[ $COLORTERM == gnome-* && $TERM == xterm ]] && infocmp gnome-256color >/dev/null 2>&1; then
    export TERM=gnome-256color
elif infocmp xterm-256color >/dev/null 2>&1; then
    export TERM=xterm-256color
fi

# Up-front dotfiles configuration
# Not part of `load_dotfiles` because it must be sourced before anything else
# to be sure that commands like `brew` (when installed in a custom location)
# are already added to the PATH.
[ -r $HOME/.dotfilesrc ] && source $HOME/.dotfilesrc;

#
# Load a given dotmodule
load_dotmod() {
    local MODNAME=$1
    local MODPATH=$DOT_MODS_ACTIVE/$MODNAME
    local MODLOADER=$$MODPATH/${MODNAME}_load.sh
    #
    if [ ! -L $MODPATH ]; then
	echo ""
	echo ">>> ERROR: enabled module not found: $MODNAME"
	echo ""
	return
    fi
    if [ ! -f $MODLOADER ]; then
	echo ""
	echo ">>> ERROR: $MODNAME is not a valid module"
	echo ""
	return
    fi
    source $MODLOADER
}

load_dotfiles() {
    declare -a files=(
        $HOME/.rvm/scripts/rvm # Load RVM into a shell session *as a function*
        $HOME/.dotfiles/shell/bash_options # Options
        $HOME/.dotfiles/shell/bash_exports # Exports
        $HOME/.dotfiles/shell/bash_aliases # Aliases
        $HOME/.dotfiles/shell/functions/* # Functions
        $HOME/.dotfiles/shell/bash_prompt # Custom bash prompt
        $HOME/.dotfiles/shell/bash_paths # Path modifications
        $(brew --prefix)/etc/bash_completion # Bash completion (installed via Homebrew)
        $HOME/.bash_profile.local # Local and private settings not under version control (e.g. git credentials)
    )

    # if these files are readable, source them
    for index in ${!files[*]}
    do
        if [[ -r ${files[$index]} ]]; then
            source ${files[$index]}
        fi
    done

    # load all enabled shell modules
    for mod in $DOT_MODS_ACTIVE/*; do
	if [ -d $mod ]; then
	    local modname=$(basename $mod)
	    load_dotmod $modname
	fi
    done
}

load_dotfiles
unset load_dotfiles
unset load_dotmod

